/*--------------------------------*- C++ -*----------------------------------*\
  =========                 |
  \\      /  F ield         | OpenFOAM: The Open Source CFD Toolbox
   \\    /   O peration     | Website:  https://openfoam.org
    \\  /    A nd           | Version:  9
     \\/     M anipulation  |
\*---------------------------------------------------------------------------*/
FoamFile
{
    format      ascii;
    class       dictionary;
    object      blockMeshDict;
}
// * * * * * * * * * * * * * * * * * * * * * * * * * * * * * * * * * * * * * //
#include "../gridSettings"

convertToMeters 1;

vertices
(
    ($xMin $yMin 0)
    ($xMax $yMin 0)
    ($xMax $yMax 0)
    ($xMin $yMax 0)
    
    ($xMin $yMin 1)
    ($xMax $yMin 1)
    ($xMax $yMax 1)
    ($xMin $yMax 1)
);

blocks
(
    hex (0 1 2 3 4 5 6 7) ($Nx $Ny 1) simpleGrading (1 1 1)
);

edges
(
);

boundary
(
    
    surrondings
    {
        type patch;
        faces
        (
            (3 7 6 2)
            (0 4 7 3)
            (2 6 5 1)
            (1 5 4 0)
        );
    }
    front
    {
        type empty;
        faces
        (
            (4 5 6 7)
        );
    }
    back
    {
        type empty;
        faces
        (
            (0 3 2 1)
        );
    }
);

mergePatchPairs
(
);

// ************************************************************************* //
