/*--------------------------------*- C++ -*----------------------------------*\
  =========                 |
  \\      /  F ield         | OpenFOAM: The Open Source CFD Toolbox
   \\    /   O peration     | Website:  https://openfoam.org
    \\  /    A nd           | Version:  9
     \\/     M anipulation  |
\*---------------------------------------------------------------------------*/
FoamFile
{
    format      ascii;
    class       dictionary;
    object      createPatchDict;
}

// * * * * * * * * * * * * * * * * * * * * * * * * * * * * * * * * * * * * * //

internalFacesOnly true;

baffles
{
    rotating
    {
        type        faceZone;
        zoneName    movingFrame;

        patches
        {
            master
            {
                name            movingFrame_AMI1;
                type            cyclicAMI;
                neighbourPatch  movingFrame_AMI2;
            }

            slave
            {
                name            movingFrame_AMI2;
                type            cyclicAMI;
                neighbourPatch  movingFrame_AMI1;
            }
        }
    }
}


// ************************************************************************* //
